test/test_files/validation_tests/case24_ieee_rts_resqlim.m
function mpc = case24_ieee_rts_resqlim
%CASE24_IEEE_RTS_RESQLIM

%% MATPOWER Case Format : Version 2
mpc.version = '2';

%%-----  Power Flow Data  -----%%
%% system MVA base
mpc.baseMVA = 100;

%% bus data
%    bus_i    type    Pd    Qd    Gs    Bs    area    Vm    Va    baseKV    zone    Vmax    Vmin
mpc.bus = [
    1    2    108    22    0    0    1    1.035    -7.27791762    138    1    1.05    0.95;
    2    2    97    20    0    0    1    1.035    -7.36977795    138    1    1.05    0.95;
    3    1    180    37    0    0    1    0.989377502    -5.58380601    138    1    1.05    0.95;
    4    1    74    15    0    0    1    0.997944849    -9.68993375    138    1    1.05    0.95;
    5    1    71    14    0    0    1    1.01853191    -9.96398112    138    1    1.05    0.95;
    6    1    136    28    0    -100    2    1.01240076    -12.4207096    138    1    1.05    0.95;
    7    2    125    25    0    0    2    1.025    -7.35747455    138    1    1.05    0.95;
    8    1    171    35    0    0    2    0.992664556    -11.088141    138    1    1.05    0.95;
    9    1    175    36    0    0    1    1.00133469    -7.43493005    138    1    1.05    0.95;
    10    1    195    40    0    0    2    1.02845944    -9.50283517    138    1    1.05    0.95;
    11    1    0    0    0    0    3    0.98989367    -2.15407503    230    1    1.05    0.95;
    12    1    0    0    0    0    3    1.00253237    -1.51746223    230    1    1.05    0.95;
    13    3    265    54    0    0    3    1.02    0    230    1    1.05    0.95;
    14    2    194    39    0    0    3    0.98    2.25844281    230    1    1.05    0.95;
    15    2    317    64    0    0    4    1.014    11.5657984    230    1    1.05    0.95;
    16    2    100    20    0    0    4    1.017    10.4487372    230    1    1.05    0.95;
    17    1    0    0    0    0    4    1.03855226    14.9313121    230    1    1.05    0.95;
    18    2    333    68    0    0    4    1.05    16.2918737    230    1    1.05    0.95;
    19    1    181    37    0    0    3    1.02324839    8.91742091    230    1    1.05    0.95;
    20    1    128    26    0    0    3    1.03848996    9.52964887    230    1    1.05    0.95;
    21    2    0    0    0    0    4    1.05    17.1173245    230    1    1.05    0.95;
    22    2    0    0    0    0    4    1.05    22.7659422    230    1    1.05    0.95;
    23    2    0    0    0    0    3    1.05    10.5722657    230    1    1.05    0.95;
    24    1    0    0    0    0    4    0.977862047    5.2991845    230    1    1.05    0.95;
];

%% generator data
%    bus    Pg    Qg    Qmax    Qmin    Vg    mBase    status    Pmax    Pmin    Pc1    Pc2    Qc1min    Qc1max    Qc2min    Qc2max    ramp_agc    ramp_10    ramp_30    ramp_q    apf
mpc.gen = [
    1    10    5.4979815    10    0    1.035    100    1    20    16    0    0    0    0    0    0    0    0    0    0    0;
    1    10    5.4979815    10    0    1.035    100    1    20    16    0    0    0    0    0    0    0    0    0    0    0;
    1    76    5.23889827    30    -25    1.035    100    1    76    15.2    0    0    0    0    0    0    0    0    0    0    0;
    1    76    5.23889827    30    -25    1.035    100    1    76    15.2    0    0    0    0    0    0    0    0    0    0    0;
    2    10    5.0506383    10    0    1.035    100    1    20    16    0    0    0    0    0    0    0    0    0    0    0;
    2    10    5.0506383    10    0    1.035    100    1    20    16    0    0    0    0    0    0    0    0    0    0    0;
    2    76    2.77851063    30    -25    1.035    100    1    76    15.2    0    0    0    0    0    0    0    0    0    0    0;
    2    76    2.77851063    30    -25    1.035    100    1    76    15.2    0    0    0    0    0    0    0    0    0    0    0;
    7    80    17.2798691    60    0    1.025    100    1    100    25    0    0    0    0    0    0    0    0    0    0    0;
    7    80    17.2798691    60    0    1.025    100    1    100    25    0    0    0    0    0    0    0    0    0    0    0;
    7    80    17.2798691    60    0    1.025    100    1    100    25    0    0    0    0    0    0    0    0    0    0    0;
    13    -2.95358451    44.6638436    80    0    1.02    100    1    197    69    0    0    0    0    0    0    0    0    0    0    0;
    13    95.1    44.6638436    80    0    1.02    100    1    197    69    0    0    0    0    0    0    0    0    0    0    0;
    13    95.1    44.6638436    80    0    1.02    100    1    197    69    0    0    0    0    0    0    0    0    0    0    0;
    14    0    -27.7239798    200    -50    0.98    100    1    0    0    0    0    0    0    0    0    0    0    0    0    0;
    15    12    1.72670625    6    0    1.014    100    1    12    2.4    0    0    0    0    0    0    0    0    0    0    0;
    15    12    1.72670625    6    0    1.014    100    1    12    2.4    0    0    0    0    0    0    0    0    0    0    0;
    15    12    1.72670625    6    0    1.014    100    1    12    2.4    0    0    0    0    0    0    0    0    0    0    0;
    15    12    1.72670625    6    0    1.014    100    1    12    2.4    0    0    0    0    0    0    0    0    0    0    0;
    15    12    1.72670625    6    0    1.014    100    1    12    2.4    0    0    0    0    0    0    0    0    0    0    0;
    15    155    -12.5880313    80    -50    1.014    100    1    155    54.3    0    0    0    0    0    0    0    0    0    0    0;
    16    155    44.4022992    80    -50    1.017    100    1    155    54.3    0    0    0    0    0    0    0    0    0    0    0;
    18    400    138.728651    200    -50    1.05    100    1    400    100    0    0    0    0    0    0    0    0    0    0    0;
    21    400    106.905947    200    -50    1.05    100    1    400    100    0    0    0    0    0    0    0    0    0    0    0;
    22    50    -4.924208    16    -10    1.05    100    1    50    10    0    0    0    0    0    0    0    0    0    0    0;
    22    50    -4.924208    16    -10    1.05    100    1    50    10    0    0    0    0    0    0    0    0    0    0    0;
    22    50    -4.924208    16    -10    1.05    100    1    50    10    0    0    0    0    0    0    0    0    0    0    0;
    22    50    -4.924208    16    -10    1.05    100    1    50    10    0    0    0    0    0    0    0    0    0    0    0;
    22    50    -4.924208    16    -10    1.05    100    1    50    10    0    0    0    0    0    0    0    0    0    0    0;
    22    50    -4.924208    16    -10    1.05    100    1    50    10    0    0    0    0    0    0    0    0    0    0    0;
    23    155    27.8765949    80    -50    1.05    100    1    155    54.3    0    0    0    0    0    0    0    0    0    0    0;
    23    155    27.8765949    80    -50    1.05    100    1    155    54.3    0    0    0    0    0    0    0    0    0    0    0;
    23    350    79.8338778    150    -25    1.05    100    1    350    140    0    0    0    0    0    0    0    0    0    0    0;
];

%% branch data
%    fbus    tbus    r    x    b    rateA    rateB    rateC    ratio    angle    status    angmin    angmax    Pf    Qf    Pt    Qt
mpc.branch = [
    1    2    0.0026    0.0139    0.4611    175    250    200    0    0    1    -360    360    11.9399    -26.9206    -11.9363    -22.4545;
    1    3    0.0546    0.2112    0.0572    175    208    220    0    0    1    -360    360    -7.9667    21.5654    8.3082    -26.1076;
    1    5    0.0218    0.0845    0.0229    175    208    220    0    0    1    -360    360    60.0268    4.8289    -59.2861    -4.3721;
    2    4    0.0328    0.1267    0.0343    175    208    220    0    0    1    -360    360    38.4358    19.1509    -37.8486    -20.4277;
    2    6    0.0497    0.192    0.052    175    208    220    0    0    1    -360    360    48.5005    -1.0381    -47.4077    -0.1904;
    3    9    0.0308    0.119    0.0322    175    208    220    0    0    1    -360    360    22.8980    -17.0094    -22.6581    14.7461;
    3    24    0.0023    0.0839    0    400    510    600    1.03    0    1    -360    360    -211.2063    6.1170    212.3191    34.4796;
    4    9    0.0268    0.1037    0.0281    175    208    220    0    0    1    -360    360    -36.1514    5.4277    36.5156    -6.8263;
    5    10    0.0228    0.0883    0.0239    175    208    220    0    0    1    -360    360    -11.7139    -9.6279    11.7595    7.3009;
    6    10    0.0139    0.0605    2.459    175    193    200    0    0    1    -360    360    -88.5923    -130.3052    89.6592    -121.1172;
    7    8    0.0159    0.0614    0.0166    175    208    220    0    0    1    -360    360    115.0000    26.8396    -112.8823    -20.3518;
    8    9    0.0427    0.1651    0.0447    175    208    220    0    0    1    -360    360    -36.9233    3.3576    37.5274    -5.4649;
    8    10    0.0427    0.1651    0.0447    175    208    220    0    0    1    -360    360    -21.1944    -18.0058    21.4973    14.6105;
    9    11    0.0023    0.0839    0    400    510    600    1.03    0    1    -360    360    -105.9186    -12.7652    106.1956    22.8690;
    9    12    0.0023    0.0839    0    400    510    600    1.03    0    1    -360    360    -120.4663    -25.6897    120.8356    39.1583;
    10    11    0.0023    0.0839    0    400    510    600    1.02    0    1    -360    360    -151.1769    36.0287    151.7233    -16.0967;
    10    12    0.0023    0.0839    0    400    510    600    1.02    0    1    -360    360    -166.7391    23.1771    167.3802    0.2099;
    11    13    0.0061    0.0476    0.0999    500    600    625    0    0    1    -360    360    -86.1459    -54.9653    86.7639    49.6968;
    11    14    0.0054    0.0418    0.0879    500    625    625    0    0    1    -360    360    -171.7731    48.1930    173.5510    -42.9582;
    12    13    0.0061    0.0476    0.0999    500    625    625    0    0    1    -360    360    -60.5143    -33.3016    60.7851    25.1976;
    12    23    0.0124    0.0966    0.203    500    625    625    0    0    1    -360    360    -227.7015    -6.0666    234.1003    34.5236;
    13    23    0.0111    0.0865    0.1818    500    625    625    0    0    1    -360    360    -225.3026    5.0972    230.7409    17.8034;
    14    16    0.005    0.0389    0.0818    500    625    625    0    0    1    -360    360    -367.5510    -23.7658    374.6047    70.4852;
    15    16    0.0022    0.0173    0.0364    500    600    625    0    0    1    -360    360    112.3009    -32.6033    -112.0108    31.1304;
    15    21    0.0063    0.049    0.103    500    600    625    0    0    1    -360    360    -214.9193    -41.9691    217.8319    53.6496;
    15    21    0.0063    0.049    0.103    500    600    625    0    0    1    -360    360    -214.9193    -41.9691    217.8319    53.6496;
    15    24    0.0067    0.0519    0.1091    500    600    625    0    0    1    -360    360    215.5378    48.5870    -212.3191    -34.4796;
    16    17    0.0033    0.0259    0.0545    500    600    625    0    0    1    -360    360    -322.6765    -33.8591    326.0293    54.4159;
    16    19    0.003    0.0231    0.0485    500    600    625    0    0    1    -360    360    115.0826    -43.3542    -114.6501    41.6376;
    17    18    0.0018    0.0144    0.0303    500    600    625    0    0    1    -360    360    -186.9409    -58.6945    187.5785    60.4905;
    17    22    0.0135    0.1053    0.2212    500    600    625    0    0    1    -360    360    -139.0883    4.2786    141.5426    -9.2584;
    18    21    0.0033    0.0259    0.0545    500    600    625    0    0    1    -360    360    -60.2892    5.1191    60.4000    -10.2583;
    18    21    0.0033    0.0259    0.0545    500    600    625    0    0    1    -360    360    -60.2892    5.1191    60.4000    -10.2583;
    19    20    0.0051    0.0396    0.0833    500    600    625    0    0    1    -360    360    -33.1750    -39.3188    33.2881    31.3445;
    19    20    0.0051    0.0396    0.0833    500    600    625    0    0    1    -360    360    -33.1750    -39.3188    33.2881    31.3445;
    20    23    0.0028    0.0216    0.0455    500    600    625    0    0    1    -360    360    -97.2881    -44.3445    97.5794    41.6300;
    20    23    0.0028    0.0216    0.0455    500    600    625    0    0    1    -360    360    -97.2881    -44.3445    97.5794    41.6300;
    21    22    0.0087    0.0678    0.1424    500    600    625    0    0    1    -360    360    -156.4638    20.1234    158.4574    -20.2868;
];

%%-----  OPF Data  -----%%
%% generator cost data
%    1    startup    shutdown    n    x1    y1    ...    xn    yn
%    2    startup    shutdown    n    c(n-1)    ...    c0
mpc.gencost = [
    2    1500    0    3    0    130    400.6849;
    2    1500    0    3    0    130    400.6849;
    2    1500    0    3    0.014142    16.0811    212.3076;
    2    1500    0    3    0.014142    16.0811    212.3076;
    2    1500    0    3    0    130    400.6849;
    2    1500    0    3    0    130    400.6849;
    2    1500    0    3    0.014142    16.0811    212.3076;
    2    1500    0    3    0.014142    16.0811    212.3076;
    2    1500    0    3    0.052672    43.6615    781.521;
    2    1500    0    3    0.052672    43.6615    781.521;
    2    1500    0    3    0.052672    43.6615    781.521;
    2    1500    0    3    0.00717    48.5804    832.7575;
    2    1500    0    3    0.00717    48.5804    832.7575;
    2    1500    0    3    0.00717    48.5804    832.7575;
    2    1500    0    3    0    0    0;
    2    1500    0    3    0.328412    56.564    86.3852;
    2    1500    0    3    0.328412    56.564    86.3852;
    2    1500    0    3    0.328412    56.564    86.3852;
    2    1500    0    3    0.328412    56.564    86.3852;
    2    1500    0    3    0.328412    56.564    86.3852;
    2    1500    0    3    0.008342    12.3883    382.2391;
    2    1500    0    3    0.008342    12.3883    382.2391;
    2    1500    0    3    0.000213    4.4231    395.3749;
    2    1500    0    3    0.000213    4.4231    395.3749;
    2    1500    0    3    0    0.001    0.001;
    2    1500    0    3    0    0.001    0.001;
    2    1500    0    3    0    0.001    0.001;
    2    1500    0    3    0    0.001    0.001;
    2    1500    0    3    0    0.001    0.001;
    2    1500    0    3    0    0.001    0.001;
    2    1500    0    3    0.008342    12.3883    382.2391;
    2    1500    0    3    0.008342    12.3883    382.2391;
    2    1500    0    3    0.004895    11.8495    665.1094;
];
